9
2
H       2.38170884      -0.18802400       0.91843749
H      -0.31951375       0.54996018       0.53675036
S      -0.15144255      -0.25114529      -0.33794442
C       1.31479237      -0.47443224      -0.96242486
H       1.67366032       0.48151252      -1.39880072
H       1.25342387      -1.23528457      -1.76876299
C       2.29168447      -0.94562386       0.10984472
H       1.95924798      -1.91316976       0.54479126
H       3.29402405      -1.09238486      -0.34485903
