9
2
H       2.35844508      -0.21516297       0.93931123
H       0.00738330       0.46186947       0.16198094
O       0.01293724      -0.37300415      -0.37542085
C       1.29333708      -0.48066517      -0.93503943
H       1.61957996       0.49731300      -1.35620191
H       1.25990644      -1.21847610      -1.76425658
C       2.29212001      -0.95481710       0.11349847
H       1.97331821      -1.93544701       0.52614464
H       3.29524736      -1.06739896      -0.34913234
