22
11
C       1.82634269      -0.55491502       1.02339169
C       2.16904027      -0.08054712      -0.03064213
C       2.57832943       0.48579606      -1.28927291
C       3.43771938       1.59080754      -1.31540608
C       3.83570554       2.14132520      -2.53744648
C       3.38129310       1.59536569      -3.74562528
C       2.51562225       0.48183150      -3.71339679
C       2.11849841      -0.06727883      -2.49047293
N       3.81828302       2.19563418      -4.98488958
C       4.59511749       1.24385727      -5.79198487
H       1.52563637      -0.97126906       1.94867856
H       3.96338099       0.40541510      -6.15884901
H       5.03626565       1.76646516      -6.66748430
H       5.43527162       0.83025191      -5.19272396
C       2.68128104       2.73420279      -5.74509400
H       3.79979065       2.02659615      -0.39190784
H       4.50082340       2.99573985      -2.54599875
H       2.14920927       0.03882046      -4.62985932
H       1.45345808      -0.92258507      -2.48163854
H       2.09367785       3.43323172      -5.11099700
H       2.01175900       1.92505347      -6.11068786
H       3.05314028       3.31031516      -6.61919200
